Version 4
SHEET 1 2360 840
WIRE -1328 -640 -1440 -640
WIRE -1328 -608 -1328 -640
WIRE -928 -560 -1120 -560
WIRE -912 -560 -928 -560
WIRE -384 -560 -768 -560
WIRE -2032 -544 -2032 -608
WIRE -1904 -544 -1904 -608
WIRE -1120 -528 -1120 -560
WIRE -1328 -496 -1328 -528
WIRE -384 -480 -384 -560
WIRE -2032 -432 -2032 -464
WIRE -1904 -432 -1904 -464
WIRE -1328 -432 -1440 -432
WIRE -1328 -400 -1328 -432
WIRE -1120 -384 -1120 -448
WIRE -384 -336 -384 -400
WIRE -192 -336 -384 -336
WIRE -48 -336 -192 -336
WIRE -1328 -288 -1328 -320
WIRE -384 -256 -384 -336
WIRE -48 -208 -48 -336
WIRE -1312 -160 -1424 -160
WIRE -1312 -128 -1312 -160
WIRE -2016 -112 -2016 -176
WIRE -1888 -112 -1888 -176
WIRE -912 -80 -1104 -80
WIRE -896 -80 -912 -80
WIRE -384 -80 -384 -176
WIRE -384 -80 -752 -80
WIRE -1104 -48 -1104 -80
WIRE -1312 -16 -1312 -48
WIRE -2016 0 -2016 -32
WIRE -1888 0 -1888 -32
WIRE -48 0 -48 -128
WIRE -1312 48 -1424 48
WIRE -1312 80 -1312 48
WIRE -1104 96 -1104 32
WIRE -192 112 -192 -336
WIRE -1312 192 -1312 160
WIRE -1312 320 -1424 320
WIRE -960 336 -1104 336
WIRE -912 336 -960 336
WIRE -192 336 -192 192
WIRE -192 336 -768 336
WIRE -1312 352 -1312 320
WIRE -1104 368 -1104 336
WIRE -2016 400 -2016 336
WIRE -1888 400 -1888 336
WIRE -1312 464 -1312 432
WIRE -2016 512 -2016 480
WIRE -1888 512 -1888 480
WIRE -1104 512 -1104 448
WIRE -1312 528 -1424 528
WIRE -1312 560 -1312 528
WIRE -1312 672 -1312 640
FLAG -1328 -496 0
FLAG -1440 -640 IF1
FLAG -1328 -288 0
FLAG -1440 -432 LO1
FLAG -1120 -384 0
FLAG -928 -560 RF1
FLAG -2032 -432 0
FLAG -1904 -432 0
FLAG -2032 -608 IF1
FLAG -1904 -608 LO1
FLAG -1312 -16 0
FLAG -1424 -160 IF2
FLAG -1312 192 0
FLAG -1424 48 LO2
FLAG -1104 96 0
FLAG -912 -80 RF2
FLAG -2016 0 0
FLAG -1888 0 0
FLAG -2016 -176 IF2
FLAG -1888 -176 LO2
FLAG -48 0 0
FLAG -48 -336 Out
FLAG -1312 464 0
FLAG -1424 320 IF3
FLAG -1312 672 0
FLAG -1424 528 LO3
FLAG -1104 512 0
FLAG -960 336 RF3
FLAG -2016 512 0
FLAG -1888 512 0
FLAG -2016 336 IF3
FLAG -1888 336 LO3
SYMBOL bv -1120 -544 R0
SYMATTR InstName B1
SYMATTR Value V=V(IF1)*V(LO1)
SYMBOL res -1344 -624 R0
SYMATTR InstName R1
SYMATTR Value 1k
SYMBOL res -1344 -416 R0
SYMATTR InstName R2
SYMATTR Value 1k
SYMBOL voltage -2032 -560 R0
WINDOW 3 -349 176 Left 2
WINDOW 123 0 0 Left 0
WINDOW 39 0 0 Left 0
SYMATTR Value PULSE(-0.5 0.5 0 0.1u 0.1u 10u 20u)
SYMATTR InstName V1
SYMBOL voltage -1904 -560 R0
WINDOW 3 -13 175 Left 2
WINDOW 123 0 0 Left 0
WINDOW 39 0 0 Left 0
SYMATTR Value SINE(0 1 1Meg)
SYMATTR InstName V2
SYMBOL bv -1104 -64 R0
SYMATTR InstName B2
SYMATTR Value V=V(IF2)*V(LO2)
SYMBOL res -1328 -144 R0
SYMATTR InstName R3
SYMATTR Value 1k
SYMBOL res -1328 64 R0
SYMATTR InstName R4
SYMATTR Value 1k
SYMBOL voltage -2016 -128 R0
WINDOW 3 -312 168 Left 2
WINDOW 123 0 0 Left 0
WINDOW 39 0 0 Left 0
SYMATTR Value PULSE(-0.5 0.5 0 10u 10u 0 20u)
SYMATTR InstName V3
SYMBOL voltage -1888 -128 R0
WINDOW 3 -13 175 Left 2
WINDOW 123 0 0 Left 0
WINDOW 39 0 0 Left 0
SYMATTR Value SINE(0 1 3Meg)
SYMATTR InstName V4
SYMBOL res -400 -496 R0
SYMATTR InstName R5
SYMATTR Value 1k
SYMBOL res -400 -272 R0
SYMATTR InstName R6
SYMATTR Value 1k
SYMBOL res -64 -224 R0
SYMATTR InstName R7
SYMATTR Value 1Meg
SYMBOL bv -1104 352 R0
SYMATTR InstName B3
SYMATTR Value V=V(IF3)*V(LO3)
SYMBOL res -1328 336 R0
SYMATTR InstName R8
SYMATTR Value 1k
SYMBOL res -1328 544 R0
SYMATTR InstName R9
SYMATTR Value 1k
SYMBOL voltage -2016 384 R0
WINDOW 3 -349 176 Left 2
WINDOW 123 0 0 Left 0
WINDOW 39 0 0 Left 0
SYMATTR Value PULSE(-0.5 0.5 0 0.1u 0.1u 10u 20u)
SYMATTR InstName V5
SYMBOL voltage -1888 384 R0
WINDOW 3 -13 175 Left 2
WINDOW 123 0 0 Left 0
WINDOW 39 0 0 Left 0
SYMATTR Value SINE(0 1 10Meg)
SYMATTR InstName V6
SYMBOL res -208 96 R0
SYMATTR InstName R10
SYMATTR Value 1k
SYMBOL BPF1 -848 -560 R0
SYMATTR InstName X1
SYMBOL BPF2 -832 -80 R0
SYMATTR InstName X2
SYMBOL BPF3 -848 336 R0
SYMATTR InstName X3
TEXT -2312 824 Left 2 ;micro-435 hw5 zeynepnur sahinel
TEXT -2312 760 Left 2 !.tran 1m
TEXT -2312 784 Left 2 !.options plotwinsize = 0
