Version 4
SHEET 1 2424 680
WIRE -1264 -352 -1376 -352
WIRE -1264 -320 -1264 -352
WIRE -864 -272 -1056 -272
WIRE -560 -272 -640 -272
WIRE -1968 -256 -1968 -320
WIRE -1840 -256 -1840 -320
WIRE -1056 -240 -1056 -272
WIRE -1264 -208 -1264 -240
WIRE -560 -192 -560 -272
WIRE -1968 -144 -1968 -176
WIRE -1840 -144 -1840 -176
WIRE -1264 -144 -1376 -144
WIRE -1264 -112 -1264 -144
WIRE -1056 -96 -1056 -160
WIRE -560 -48 -560 -112
WIRE -352 -48 -560 -48
WIRE -1264 0 -1264 -32
WIRE -560 32 -560 -48
WIRE -352 80 -352 -48
WIRE -1248 128 -1360 128
WIRE -1248 160 -1248 128
WIRE -1952 176 -1952 112
WIRE -1824 176 -1824 112
WIRE -848 208 -1040 208
WIRE -560 208 -560 112
WIRE -560 208 -656 208
WIRE -1040 240 -1040 208
WIRE -1248 272 -1248 240
WIRE -1952 288 -1952 256
WIRE -1824 288 -1824 256
WIRE -352 288 -352 160
WIRE -1248 336 -1360 336
WIRE -1248 368 -1248 336
WIRE -1040 384 -1040 320
WIRE -1248 480 -1248 448
FLAG -1264 -208 0
FLAG -1376 -352 IF1
FLAG -1264 0 0
FLAG -1376 -144 LO1
FLAG -1056 -96 0
FLAG -864 -272 RF1
FLAG -1968 -144 0
FLAG -1840 -144 0
FLAG -1968 -320 IF1
FLAG -1840 -320 LO1
FLAG -1248 272 0
FLAG -1360 128 IF2
FLAG -1248 480 0
FLAG -1360 336 LO2
FLAG -1040 384 0
FLAG -848 208 RF2
FLAG -1952 288 0
FLAG -1824 288 0
FLAG -1952 112 IF2
FLAG -1824 112 LO2
FLAG -352 288 0
FLAG -352 -48 Out
DATAFLAG -352 -48 ""
SYMBOL bv -1056 -256 R0
SYMATTR InstName B1
SYMATTR Value V=V(IF1)*V(LO1)
SYMBOL res -1280 -336 R0
SYMATTR InstName R1
SYMATTR Value 1k
SYMBOL res -1280 -128 R0
SYMATTR InstName R2
SYMATTR Value 1k
SYMBOL voltage -1968 -272 R0
WINDOW 3 -349 176 Left 2
WINDOW 123 0 0 Left 0
WINDOW 39 0 0 Left 0
SYMATTR Value PULSE(-0.5 0.5 0 0.1u 0.1u 10u 20u)
SYMATTR InstName V1
SYMBOL voltage -1840 -272 R0
WINDOW 3 -13 175 Left 2
WINDOW 123 0 0 Left 0
WINDOW 39 0 0 Left 0
SYMATTR Value SINE(0 1 1Meg)
SYMATTR InstName V2
SYMBOL bv -1040 224 R0
SYMATTR InstName B2
SYMATTR Value V=V(IF2)*V(LO2)
SYMBOL res -1264 144 R0
SYMATTR InstName R3
SYMATTR Value 1k
SYMBOL res -1264 352 R0
SYMATTR InstName R4
SYMATTR Value 1k
SYMBOL voltage -1952 160 R0
WINDOW 3 -312 168 Left 2
WINDOW 123 0 0 Left 0
WINDOW 39 0 0 Left 0
SYMATTR Value PULSE(-0.5 0.5 0 10u 10u 0 20u)
SYMATTR InstName V3
SYMBOL voltage -1824 160 R0
WINDOW 3 -13 175 Left 2
WINDOW 123 0 0 Left 0
WINDOW 39 0 0 Left 0
SYMATTR Value SINE(0 1 3Meg)
SYMATTR InstName V4
SYMBOL res -576 -208 R0
SYMATTR InstName R5
SYMATTR Value 1k
SYMBOL res -576 16 R0
SYMATTR InstName R6
SYMATTR Value 1k
SYMBOL res -368 64 R0
SYMATTR InstName R7
SYMATTR Value 1Meg
SYMBOL BPF1 -720 -272 R0
SYMATTR InstName X1
TEXT -2072 584 Left 2 ;micro-435 hw5 zeynepnur sahinel
TEXT -2072 520 Left 2 !.tran 1m
